* NGSPICE file created from cvxif_pau.ext - technology: sky130A

* Black-box entry subcircuit for sky130_fd_sc_hd__o21ai_1 abstract view
.subckt sky130_fd_sc_hd__o21ai_1 A1 A2 B1 VGND VNB VPB VPWR Y
.ends

* Black-box entry subcircuit for sky130_ef_sc_hd__decap_12 abstract view
.subckt sky130_ef_sc_hd__decap_12 VPWR VGND VPB VNB
.ends

* Black-box entry subcircuit for sky130_fd_sc_hd__a21oi_2 abstract view
.subckt sky130_fd_sc_hd__a21oi_2 A1 A2 B1 VGND VNB VPB VPWR Y
.ends

* Black-box entry subcircuit for sky130_fd_sc_hd__decap_4 abstract view
.subckt sky130_fd_sc_hd__decap_4 VGND VNB VPB VPWR
.ends

* Black-box entry subcircuit for sky130_fd_sc_hd__decap_3 abstract view
.subckt sky130_fd_sc_hd__decap_3 VGND VNB VPB VPWR
.ends

* Black-box entry subcircuit for sky130_fd_sc_hd__decap_8 abstract view
.subckt sky130_fd_sc_hd__decap_8 VGND VNB VPB VPWR
.ends

* Black-box entry subcircuit for sky130_fd_sc_hd__nand4_2 abstract view
.subckt sky130_fd_sc_hd__nand4_2 A B C D VGND VNB VPB VPWR Y
.ends

* Black-box entry subcircuit for sky130_fd_sc_hd__mux2_1 abstract view
.subckt sky130_fd_sc_hd__mux2_1 A0 A1 S VGND VNB VPB VPWR X
.ends

* Black-box entry subcircuit for sky130_fd_sc_hd__fill_1 abstract view
.subckt sky130_fd_sc_hd__fill_1 VGND VNB VPB VPWR
.ends

* Black-box entry subcircuit for sky130_fd_sc_hd__a21o_1 abstract view
.subckt sky130_fd_sc_hd__a21o_1 A1 A2 B1 VGND VNB VPB VPWR X
.ends

* Black-box entry subcircuit for sky130_fd_sc_hd__nor2_1 abstract view
.subckt sky130_fd_sc_hd__nor2_1 A B VGND VNB VPB VPWR Y
.ends

* Black-box entry subcircuit for sky130_fd_sc_hd__decap_6 abstract view
.subckt sky130_fd_sc_hd__decap_6 VGND VNB VPB VPWR
.ends

* Black-box entry subcircuit for sky130_fd_sc_hd__fill_2 abstract view
.subckt sky130_fd_sc_hd__fill_2 VGND VNB VPB VPWR
.ends

* Black-box entry subcircuit for sky130_fd_sc_hd__tapvpwrvgnd_1 abstract view
.subckt sky130_fd_sc_hd__tapvpwrvgnd_1 VGND VPWR
.ends

* Black-box entry subcircuit for sky130_fd_sc_hd__or4_1 abstract view
.subckt sky130_fd_sc_hd__or4_1 A B C D VGND VNB VPB VPWR X
.ends

* Black-box entry subcircuit for sky130_fd_sc_hd__xnor2_1 abstract view
.subckt sky130_fd_sc_hd__xnor2_1 A B VGND VNB VPB VPWR Y
.ends

* Black-box entry subcircuit for sky130_fd_sc_hd__o41a_4 abstract view
.subckt sky130_fd_sc_hd__o41a_4 A1 A2 A3 A4 B1 VGND VNB VPB VPWR X
.ends

* Black-box entry subcircuit for sky130_fd_sc_hd__or2_1 abstract view
.subckt sky130_fd_sc_hd__or2_1 A B VGND VNB VPB VPWR X
.ends

* Black-box entry subcircuit for sky130_fd_sc_hd__a31o_2 abstract view
.subckt sky130_fd_sc_hd__a31o_2 A1 A2 A3 B1 VGND VNB VPB VPWR X
.ends

* Black-box entry subcircuit for sky130_fd_sc_hd__dfxtp_1 abstract view
.subckt sky130_fd_sc_hd__dfxtp_1 CLK D VGND VNB VPB VPWR Q
.ends

* Black-box entry subcircuit for sky130_fd_sc_hd__clkbuf_1 abstract view
.subckt sky130_fd_sc_hd__clkbuf_1 A VGND VNB VPB VPWR X
.ends

* Black-box entry subcircuit for sky130_fd_sc_hd__a21boi_1 abstract view
.subckt sky130_fd_sc_hd__a21boi_1 A1 A2 B1_N VGND VNB VPB VPWR Y
.ends

* Black-box entry subcircuit for sky130_fd_sc_hd__inv_2 abstract view
.subckt sky130_fd_sc_hd__inv_2 A VGND VNB VPB VPWR Y
.ends

* Black-box entry subcircuit for sky130_fd_sc_hd__xor2_1 abstract view
.subckt sky130_fd_sc_hd__xor2_1 A B VGND VNB VPB VPWR X
.ends

* Black-box entry subcircuit for sky130_fd_sc_hd__dfxtp_2 abstract view
.subckt sky130_fd_sc_hd__dfxtp_2 CLK D VGND VNB VPB VPWR Q
.ends

* Black-box entry subcircuit for sky130_fd_sc_hd__conb_1 abstract view
.subckt sky130_fd_sc_hd__conb_1 VGND VNB VPB VPWR HI LO
.ends

* Black-box entry subcircuit for sky130_fd_sc_hd__a21oi_1 abstract view
.subckt sky130_fd_sc_hd__a21oi_1 A1 A2 B1 VGND VNB VPB VPWR Y
.ends

* Black-box entry subcircuit for sky130_fd_sc_hd__xor2_2 abstract view
.subckt sky130_fd_sc_hd__xor2_2 A B VGND VNB VPB VPWR X
.ends

* Black-box entry subcircuit for sky130_fd_sc_hd__and3_1 abstract view
.subckt sky130_fd_sc_hd__and3_1 A B C VGND VNB VPB VPWR X
.ends

* Black-box entry subcircuit for sky130_fd_sc_hd__a31o_1 abstract view
.subckt sky130_fd_sc_hd__a31o_1 A1 A2 A3 B1 VGND VNB VPB VPWR X
.ends

* Black-box entry subcircuit for sky130_fd_sc_hd__buf_1 abstract view
.subckt sky130_fd_sc_hd__buf_1 A VGND VNB VPB VPWR X
.ends

* Black-box entry subcircuit for sky130_fd_sc_hd__and4_1 abstract view
.subckt sky130_fd_sc_hd__and4_1 A B C D VGND VNB VPB VPWR X
.ends

* Black-box entry subcircuit for sky130_fd_sc_hd__nand2_1 abstract view
.subckt sky130_fd_sc_hd__nand2_1 A B VGND VNB VPB VPWR Y
.ends

* Black-box entry subcircuit for sky130_fd_sc_hd__xnor2_4 abstract view
.subckt sky130_fd_sc_hd__xnor2_4 A B VGND VNB VPB VPWR Y
.ends

* Black-box entry subcircuit for sky130_fd_sc_hd__or4_2 abstract view
.subckt sky130_fd_sc_hd__or4_2 A B C D VGND VNB VPB VPWR X
.ends

* Black-box entry subcircuit for sky130_fd_sc_hd__and2_2 abstract view
.subckt sky130_fd_sc_hd__and2_2 A B VGND VNB VPB VPWR X
.ends

* Black-box entry subcircuit for sky130_fd_sc_hd__and2_1 abstract view
.subckt sky130_fd_sc_hd__and2_1 A B VGND VNB VPB VPWR X
.ends

* Black-box entry subcircuit for sky130_fd_sc_hd__dlxtn_1 abstract view
.subckt sky130_fd_sc_hd__dlxtn_1 D GATE_N VGND VNB VPB VPWR Q
.ends

* Black-box entry subcircuit for sky130_fd_sc_hd__mux2_2 abstract view
.subckt sky130_fd_sc_hd__mux2_2 A0 A1 S VGND VNB VPB VPWR X
.ends

* Black-box entry subcircuit for sky130_fd_sc_hd__o31ai_1 abstract view
.subckt sky130_fd_sc_hd__o31ai_1 A1 A2 A3 B1 VGND VNB VPB VPWR Y
.ends

* Black-box entry subcircuit for sky130_fd_sc_hd__nor3_2 abstract view
.subckt sky130_fd_sc_hd__nor3_2 A B C VGND VNB VPB VPWR Y
.ends

* Black-box entry subcircuit for sky130_fd_sc_hd__a41o_1 abstract view
.subckt sky130_fd_sc_hd__a41o_1 A1 A2 A3 A4 B1 VGND VNB VPB VPWR X
.ends

* Black-box entry subcircuit for sky130_fd_sc_hd__o21a_1 abstract view
.subckt sky130_fd_sc_hd__o21a_1 A1 A2 B1 VGND VNB VPB VPWR X
.ends

* Black-box entry subcircuit for sky130_fd_sc_hd__dfxtp_4 abstract view
.subckt sky130_fd_sc_hd__dfxtp_4 CLK D VGND VNB VPB VPWR Q
.ends

* Black-box entry subcircuit for sky130_fd_sc_hd__a211o_1 abstract view
.subckt sky130_fd_sc_hd__a211o_1 A1 A2 B1 C1 VGND VNB VPB VPWR X
.ends

* Black-box entry subcircuit for sky130_fd_sc_hd__buf_2 abstract view
.subckt sky130_fd_sc_hd__buf_2 A VGND VNB VPB VPWR X
.ends

* Black-box entry subcircuit for sky130_fd_sc_hd__o21ai_2 abstract view
.subckt sky130_fd_sc_hd__o21ai_2 A1 A2 B1 VGND VNB VPB VPWR Y
.ends

* Black-box entry subcircuit for sky130_fd_sc_hd__a21boi_2 abstract view
.subckt sky130_fd_sc_hd__a21boi_2 A1 A2 B1_N VGND VNB VPB VPWR Y
.ends

* Black-box entry subcircuit for sky130_fd_sc_hd__o31a_1 abstract view
.subckt sky130_fd_sc_hd__o31a_1 A1 A2 A3 B1 VGND VNB VPB VPWR X
.ends

* Black-box entry subcircuit for sky130_fd_sc_hd__clkbuf_4 abstract view
.subckt sky130_fd_sc_hd__clkbuf_4 A VGND VNB VPB VPWR X
.ends

* Black-box entry subcircuit for sky130_fd_sc_hd__buf_6 abstract view
.subckt sky130_fd_sc_hd__buf_6 A VGND VNB VPB VPWR X
.ends

* Black-box entry subcircuit for sky130_fd_sc_hd__xnor2_2 abstract view
.subckt sky130_fd_sc_hd__xnor2_2 A B VGND VNB VPB VPWR Y
.ends

* Black-box entry subcircuit for sky130_fd_sc_hd__and3b_1 abstract view
.subckt sky130_fd_sc_hd__and3b_1 A_N B C VGND VNB VPB VPWR X
.ends

* Black-box entry subcircuit for sky130_fd_sc_hd__and2b_1 abstract view
.subckt sky130_fd_sc_hd__and2b_1 A_N B VGND VNB VPB VPWR X
.ends

* Black-box entry subcircuit for sky130_fd_sc_hd__a311o_1 abstract view
.subckt sky130_fd_sc_hd__a311o_1 A1 A2 A3 B1 C1 VGND VNB VPB VPWR X
.ends

* Black-box entry subcircuit for sky130_fd_sc_hd__nand2_2 abstract view
.subckt sky130_fd_sc_hd__nand2_2 A B VGND VNB VPB VPWR Y
.ends

* Black-box entry subcircuit for sky130_fd_sc_hd__or2b_1 abstract view
.subckt sky130_fd_sc_hd__or2b_1 A B_N VGND VNB VPB VPWR X
.ends

* Black-box entry subcircuit for sky130_fd_sc_hd__o22a_1 abstract view
.subckt sky130_fd_sc_hd__o22a_1 A1 A2 B1 B2 VGND VNB VPB VPWR X
.ends

* Black-box entry subcircuit for sky130_fd_sc_hd__o221a_1 abstract view
.subckt sky130_fd_sc_hd__o221a_1 A1 A2 B1 B2 C1 VGND VNB VPB VPWR X
.ends

* Black-box entry subcircuit for sky130_fd_sc_hd__or4b_1 abstract view
.subckt sky130_fd_sc_hd__or4b_1 A B C D_N VGND VNB VPB VPWR X
.ends

* Black-box entry subcircuit for sky130_fd_sc_hd__or3b_2 abstract view
.subckt sky130_fd_sc_hd__or3b_2 A B C_N VGND VNB VPB VPWR X
.ends

* Black-box entry subcircuit for sky130_fd_sc_hd__o22ai_2 abstract view
.subckt sky130_fd_sc_hd__o22ai_2 A1 A2 B1 B2 VGND VNB VPB VPWR Y
.ends

* Black-box entry subcircuit for sky130_fd_sc_hd__nand3_1 abstract view
.subckt sky130_fd_sc_hd__nand3_1 A B C VGND VNB VPB VPWR Y
.ends

* Black-box entry subcircuit for sky130_fd_sc_hd__nor3_1 abstract view
.subckt sky130_fd_sc_hd__nor3_1 A B C VGND VNB VPB VPWR Y
.ends

* Black-box entry subcircuit for sky130_fd_sc_hd__a32o_1 abstract view
.subckt sky130_fd_sc_hd__a32o_1 A1 A2 A3 B1 B2 VGND VNB VPB VPWR X
.ends

* Black-box entry subcircuit for sky130_fd_sc_hd__nor4b_1 abstract view
.subckt sky130_fd_sc_hd__nor4b_1 A B C D_N VGND VNB VPB VPWR Y
.ends

* Black-box entry subcircuit for sky130_fd_sc_hd__xor2_4 abstract view
.subckt sky130_fd_sc_hd__xor2_4 A B VGND VNB VPB VPWR X
.ends

* Black-box entry subcircuit for sky130_fd_sc_hd__o21bai_1 abstract view
.subckt sky130_fd_sc_hd__o21bai_1 A1 A2 B1_N VGND VNB VPB VPWR Y
.ends

* Black-box entry subcircuit for sky130_fd_sc_hd__o21a_2 abstract view
.subckt sky130_fd_sc_hd__o21a_2 A1 A2 B1 VGND VNB VPB VPWR X
.ends

* Black-box entry subcircuit for sky130_fd_sc_hd__o211a_1 abstract view
.subckt sky130_fd_sc_hd__o211a_1 A1 A2 B1 C1 VGND VNB VPB VPWR X
.ends

* Black-box entry subcircuit for sky130_fd_sc_hd__nor2_4 abstract view
.subckt sky130_fd_sc_hd__nor2_4 A B VGND VNB VPB VPWR Y
.ends

* Black-box entry subcircuit for sky130_fd_sc_hd__a211oi_1 abstract view
.subckt sky130_fd_sc_hd__a211oi_1 A1 A2 B1 C1 VGND VNB VPB VPWR Y
.ends

* Black-box entry subcircuit for sky130_fd_sc_hd__mux2_4 abstract view
.subckt sky130_fd_sc_hd__mux2_4 A0 A1 S VGND VNB VPB VPWR X
.ends

* Black-box entry subcircuit for sky130_fd_sc_hd__clkinv_4 abstract view
.subckt sky130_fd_sc_hd__clkinv_4 A VGND VNB VPB VPWR Y
.ends

* Black-box entry subcircuit for sky130_fd_sc_hd__nand2b_1 abstract view
.subckt sky130_fd_sc_hd__nand2b_1 A_N B VGND VNB VPB VPWR Y
.ends

* Black-box entry subcircuit for sky130_fd_sc_hd__or3_1 abstract view
.subckt sky130_fd_sc_hd__or3_1 A B C VGND VNB VPB VPWR X
.ends

* Black-box entry subcircuit for sky130_fd_sc_hd__nand4_1 abstract view
.subckt sky130_fd_sc_hd__nand4_1 A B C D VGND VNB VPB VPWR Y
.ends

* Black-box entry subcircuit for sky130_fd_sc_hd__clkinvlp_2 abstract view
.subckt sky130_fd_sc_hd__clkinvlp_2 A VGND VNB VPB VPWR Y
.ends

* Black-box entry subcircuit for sky130_fd_sc_hd__o21ai_4 abstract view
.subckt sky130_fd_sc_hd__o21ai_4 A1 A2 B1 VGND VNB VPB VPWR Y
.ends

* Black-box entry subcircuit for sky130_fd_sc_hd__a2111o_1 abstract view
.subckt sky130_fd_sc_hd__a2111o_1 A1 A2 B1 C1 D1 VGND VNB VPB VPWR X
.ends

* Black-box entry subcircuit for sky130_fd_sc_hd__clkbuf_16 abstract view
.subckt sky130_fd_sc_hd__clkbuf_16 A VGND VNB VPB VPWR X
.ends

* Black-box entry subcircuit for sky130_fd_sc_hd__nor2b_1 abstract view
.subckt sky130_fd_sc_hd__nor2b_1 A B_N VGND VNB VPB VPWR Y
.ends

* Black-box entry subcircuit for sky130_fd_sc_hd__a22o_1 abstract view
.subckt sky130_fd_sc_hd__a22o_1 A1 A2 B1 B2 VGND VNB VPB VPWR X
.ends

* Black-box entry subcircuit for sky130_fd_sc_hd__a2bb2o_1 abstract view
.subckt sky130_fd_sc_hd__a2bb2o_1 A1_N A2_N B1 B2 VGND VNB VPB VPWR X
.ends

* Black-box entry subcircuit for sky130_fd_sc_hd__and4bb_2 abstract view
.subckt sky130_fd_sc_hd__and4bb_2 A_N B_N C D VGND VNB VPB VPWR X
.ends

* Black-box entry subcircuit for sky130_fd_sc_hd__o22ai_4 abstract view
.subckt sky130_fd_sc_hd__o22ai_4 A1 A2 B1 B2 VGND VNB VPB VPWR Y
.ends

* Black-box entry subcircuit for sky130_fd_sc_hd__and4_2 abstract view
.subckt sky130_fd_sc_hd__and4_2 A B C D VGND VNB VPB VPWR X
.ends

* Black-box entry subcircuit for sky130_fd_sc_hd__o2bb2a_1 abstract view
.subckt sky130_fd_sc_hd__o2bb2a_1 A1_N A2_N B1 B2 VGND VNB VPB VPWR X
.ends

* Black-box entry subcircuit for sky130_fd_sc_hd__a21o_2 abstract view
.subckt sky130_fd_sc_hd__a21o_2 A1 A2 B1 VGND VNB VPB VPWR X
.ends

* Black-box entry subcircuit for sky130_fd_sc_hd__or3b_1 abstract view
.subckt sky130_fd_sc_hd__or3b_1 A B C_N VGND VNB VPB VPWR X
.ends

* Black-box entry subcircuit for sky130_fd_sc_hd__a21bo_1 abstract view
.subckt sky130_fd_sc_hd__a21bo_1 A1 A2 B1_N VGND VNB VPB VPWR X
.ends

* Black-box entry subcircuit for sky130_fd_sc_hd__a21oi_4 abstract view
.subckt sky130_fd_sc_hd__a21oi_4 A1 A2 B1 VGND VNB VPB VPWR Y
.ends

* Black-box entry subcircuit for sky130_fd_sc_hd__or2_2 abstract view
.subckt sky130_fd_sc_hd__or2_2 A B VGND VNB VPB VPWR X
.ends

* Black-box entry subcircuit for sky130_fd_sc_hd__a211oi_2 abstract view
.subckt sky130_fd_sc_hd__a211oi_2 A1 A2 B1 C1 VGND VNB VPB VPWR Y
.ends

* Black-box entry subcircuit for sky130_fd_sc_hd__o41a_2 abstract view
.subckt sky130_fd_sc_hd__o41a_2 A1 A2 A3 A4 B1 VGND VNB VPB VPWR X
.ends

* Black-box entry subcircuit for sky130_fd_sc_hd__nor2_2 abstract view
.subckt sky130_fd_sc_hd__nor2_2 A B VGND VNB VPB VPWR Y
.ends

* Black-box entry subcircuit for sky130_fd_sc_hd__a22oi_2 abstract view
.subckt sky130_fd_sc_hd__a22oi_2 A1 A2 B1 B2 VGND VNB VPB VPWR Y
.ends

* Black-box entry subcircuit for sky130_fd_sc_hd__o41a_1 abstract view
.subckt sky130_fd_sc_hd__o41a_1 A1 A2 A3 A4 B1 VGND VNB VPB VPWR X
.ends

* Black-box entry subcircuit for sky130_fd_sc_hd__dlymetal6s2s_1 abstract view
.subckt sky130_fd_sc_hd__dlymetal6s2s_1 A VGND VNB VPB VPWR X
.ends

* Black-box entry subcircuit for sky130_fd_sc_hd__o21ba_1 abstract view
.subckt sky130_fd_sc_hd__o21ba_1 A1 A2 B1_N VGND VNB VPB VPWR X
.ends

* Black-box entry subcircuit for sky130_fd_sc_hd__o211ai_4 abstract view
.subckt sky130_fd_sc_hd__o211ai_4 A1 A2 B1 C1 VGND VNB VPB VPWR Y
.ends

* Black-box entry subcircuit for sky130_fd_sc_hd__o211ai_1 abstract view
.subckt sky130_fd_sc_hd__o211ai_1 A1 A2 B1 C1 VGND VNB VPB VPWR Y
.ends

* Black-box entry subcircuit for sky130_fd_sc_hd__nand3_2 abstract view
.subckt sky130_fd_sc_hd__nand3_2 A B C VGND VNB VPB VPWR Y
.ends

* Black-box entry subcircuit for sky130_fd_sc_hd__o31a_2 abstract view
.subckt sky130_fd_sc_hd__o31a_2 A1 A2 A3 B1 VGND VNB VPB VPWR X
.ends

* Black-box entry subcircuit for sky130_fd_sc_hd__o2111a_1 abstract view
.subckt sky130_fd_sc_hd__o2111a_1 A1 A2 B1 C1 D1 VGND VNB VPB VPWR X
.ends

* Black-box entry subcircuit for sky130_fd_sc_hd__and4b_1 abstract view
.subckt sky130_fd_sc_hd__and4b_1 A_N B C D VGND VNB VPB VPWR X
.ends

* Black-box entry subcircuit for sky130_fd_sc_hd__o32a_1 abstract view
.subckt sky130_fd_sc_hd__o32a_1 A1 A2 A3 B1 B2 VGND VNB VPB VPWR X
.ends

* Black-box entry subcircuit for sky130_fd_sc_hd__nand3b_1 abstract view
.subckt sky130_fd_sc_hd__nand3b_1 A_N B C VGND VNB VPB VPWR Y
.ends

* Black-box entry subcircuit for sky130_fd_sc_hd__o31ai_4 abstract view
.subckt sky130_fd_sc_hd__o31ai_4 A1 A2 A3 B1 VGND VNB VPB VPWR Y
.ends

* Black-box entry subcircuit for sky130_fd_sc_hd__o22ai_1 abstract view
.subckt sky130_fd_sc_hd__o22ai_1 A1 A2 B1 B2 VGND VNB VPB VPWR Y
.ends

* Black-box entry subcircuit for sky130_fd_sc_hd__o22a_2 abstract view
.subckt sky130_fd_sc_hd__o22a_2 A1 A2 B1 B2 VGND VNB VPB VPWR X
.ends

* Black-box entry subcircuit for sky130_fd_sc_hd__clkbuf_8 abstract view
.subckt sky130_fd_sc_hd__clkbuf_8 A VGND VNB VPB VPWR X
.ends

* Black-box entry subcircuit for sky130_fd_sc_hd__o311ai_4 abstract view
.subckt sky130_fd_sc_hd__o311ai_4 A1 A2 A3 B1 C1 VGND VNB VPB VPWR Y
.ends

* Black-box entry subcircuit for sky130_fd_sc_hd__a31oi_4 abstract view
.subckt sky130_fd_sc_hd__a31oi_4 A1 A2 A3 B1 VGND VNB VPB VPWR Y
.ends

* Black-box entry subcircuit for sky130_fd_sc_hd__clkbuf_2 abstract view
.subckt sky130_fd_sc_hd__clkbuf_2 A VGND VNB VPB VPWR X
.ends

* Black-box entry subcircuit for sky130_fd_sc_hd__o311a_1 abstract view
.subckt sky130_fd_sc_hd__o311a_1 A1 A2 A3 B1 C1 VGND VNB VPB VPWR X
.ends

* Black-box entry subcircuit for sky130_fd_sc_hd__o211ai_2 abstract view
.subckt sky130_fd_sc_hd__o211ai_2 A1 A2 B1 C1 VGND VNB VPB VPWR Y
.ends

* Black-box entry subcircuit for sky130_fd_sc_hd__a221o_1 abstract view
.subckt sky130_fd_sc_hd__a221o_1 A1 A2 B1 B2 C1 VGND VNB VPB VPWR X
.ends

* Black-box entry subcircuit for sky130_fd_sc_hd__or4b_2 abstract view
.subckt sky130_fd_sc_hd__or4b_2 A B C D_N VGND VNB VPB VPWR X
.ends

* Black-box entry subcircuit for sky130_fd_sc_hd__nand2_4 abstract view
.subckt sky130_fd_sc_hd__nand2_4 A B VGND VNB VPB VPWR Y
.ends

* Black-box entry subcircuit for sky130_fd_sc_hd__a22o_2 abstract view
.subckt sky130_fd_sc_hd__a22o_2 A1 A2 B1 B2 VGND VNB VPB VPWR X
.ends

* Black-box entry subcircuit for sky130_fd_sc_hd__or2b_2 abstract view
.subckt sky130_fd_sc_hd__or2b_2 A B_N VGND VNB VPB VPWR X
.ends

* Black-box entry subcircuit for sky130_fd_sc_hd__o311a_2 abstract view
.subckt sky130_fd_sc_hd__o311a_2 A1 A2 A3 B1 C1 VGND VNB VPB VPWR X
.ends

* Black-box entry subcircuit for sky130_fd_sc_hd__a2111oi_1 abstract view
.subckt sky130_fd_sc_hd__a2111oi_1 A1 A2 B1 C1 D1 VGND VNB VPB VPWR Y
.ends

* Black-box entry subcircuit for sky130_fd_sc_hd__or3_2 abstract view
.subckt sky130_fd_sc_hd__or3_2 A B C VGND VNB VPB VPWR X
.ends

* Black-box entry subcircuit for sky130_fd_sc_hd__a221oi_4 abstract view
.subckt sky130_fd_sc_hd__a221oi_4 A1 A2 B1 B2 C1 VGND VNB VPB VPWR Y
.ends

* Black-box entry subcircuit for sky130_fd_sc_hd__nand4bb_4 abstract view
.subckt sky130_fd_sc_hd__nand4bb_4 A_N B_N C D VGND VNB VPB VPWR Y
.ends

* Black-box entry subcircuit for sky130_fd_sc_hd__o2bb2a_2 abstract view
.subckt sky130_fd_sc_hd__o2bb2a_2 A1_N A2_N B1 B2 VGND VNB VPB VPWR X
.ends

* Black-box entry subcircuit for sky130_fd_sc_hd__diode_2 abstract view
.subckt sky130_fd_sc_hd__diode_2 DIODE VGND VNB VPB VPWR
.ends

* Black-box entry subcircuit for sky130_fd_sc_hd__a31oi_2 abstract view
.subckt sky130_fd_sc_hd__a31oi_2 A1 A2 A3 B1 VGND VNB VPB VPWR Y
.ends

.subckt cvxif_pau VGND VPWR clk issue_ready issue_req_instr[0] issue_req_instr[10]
+ issue_req_instr[11] issue_req_instr[12] issue_req_instr[13] issue_req_instr[14]
+ issue_req_instr[15] issue_req_instr[16] issue_req_instr[17] issue_req_instr[18]
+ issue_req_instr[19] issue_req_instr[1] issue_req_instr[20] issue_req_instr[21] issue_req_instr[22]
+ issue_req_instr[23] issue_req_instr[24] issue_req_instr[25] issue_req_instr[26]
+ issue_req_instr[27] issue_req_instr[28] issue_req_instr[29] issue_req_instr[2] issue_req_instr[30]
+ issue_req_instr[31] issue_req_instr[3] issue_req_instr[4] issue_req_instr[5] issue_req_instr[6]
+ issue_req_instr[7] issue_req_instr[8] issue_req_instr[9] issue_resp_accept issue_resp_register_read[1]
+ issue_valid register_rs0[0] register_rs0[10] register_rs0[11] register_rs0[12] register_rs0[13]
+ register_rs0[14] register_rs0[15] register_rs0[16] register_rs0[17] register_rs0[18]
+ register_rs0[19] register_rs0[1] register_rs0[20] register_rs0[21] register_rs0[22]
+ register_rs0[23] register_rs0[24] register_rs0[25] register_rs0[26] register_rs0[27]
+ register_rs0[28] register_rs0[29] register_rs0[2] register_rs0[30] register_rs0[31]
+ register_rs0[3] register_rs0[4] register_rs0[5] register_rs0[6] register_rs0[7]
+ register_rs0[8] register_rs0[9] register_rs1[0] register_rs1[10] register_rs1[11]
+ register_rs1[12] register_rs1[13] register_rs1[14] register_rs1[15] register_rs1[16]
+ register_rs1[17] register_rs1[18] register_rs1[19] register_rs1[1] register_rs1[20]
+ register_rs1[21] register_rs1[22] register_rs1[23] register_rs1[24] register_rs1[25]
+ register_rs1[26] register_rs1[27] register_rs1[28] register_rs1[29] register_rs1[2]
+ register_rs1[30] register_rs1[31] register_rs1[3] register_rs1[4] register_rs1[5]
+ register_rs1[6] register_rs1[7] register_rs1[8] register_rs1[9] register_rs_valid[0]
+ register_rs_valid[1] register_valid result_data[0] result_data[10] result_data[11]
+ result_data[12] result_data[13] result_data[14] result_data[15] result_data[16]
+ result_data[17] result_data[18] result_data[19] result_data[1] result_data[2] result_data[30]
+ result_data[31] result_data[3] result_data[4] result_data[5] result_data[6] result_data[7]
+ result_data[8] result_data[9] result_ready result_valid rst result_data[20] result_data[29]
+ result_data[28] result_data[27] result_data[26] register_ready result_data[25] result_data[24]
+ result_data[23] issue_resp_writeback result_data[22] result_data[21] issue_resp_register_read[0]
X_2037_ _1071_ _1075_ _0081_ VGND VGND VPWR VPWR _0082_ sky130_fd_sc_hd__o21ai_1
XFILLER_0_49_303 VPWR VGND VPWR VGND sky130_ef_sc_hd__decap_12
X_2106_ _0060_ _0065_ _0110_ VGND VGND VPWR VPWR _0151_ sky130_fd_sc_hd__a21oi_2
XFILLER_0_43_81 VGND VGND VPWR VPWR sky130_fd_sc_hd__decap_4
XFILLER_0_17_277 VGND VGND VPWR VPWR sky130_fd_sc_hd__decap_3
XFILLER_0_55_317 VPWR VGND VPWR VGND sky130_ef_sc_hd__decap_12
XPHY_EDGE_ROW_37_Left_97 VGND VGND VPWR VPWR sky130_fd_sc_hd__decap_3
XFILLER_0_23_247 VGND VGND VPWR VPWR sky130_fd_sc_hd__decap_8
XFILLER_0_48_15 VPWR VGND VPWR VGND sky130_ef_sc_hd__decap_12
X_1270_ _0414_ _0422_ _0419_ _0420_ VGND VGND VPWR VPWR _0424_ sky130_fd_sc_hd__nand4_2
X_1606_ _0758_ _0759_ _0546_ VGND VGND VPWR VPWR _0760_ sky130_fd_sc_hd__mux2_1
XFILLER_0_14_269 VGND VGND VPWR VPWR sky130_fd_sc_hd__fill_1
X_1537_ _0386_ _0392_ _0689_ VGND VGND VPWR VPWR _0691_ sky130_fd_sc_hd__mux2_1
X_1399_ _0425_ _0470_ _0552_ VGND VGND VPWR VPWR _0553_ sky130_fd_sc_hd__a21o_1
X_1468_ _0415_ _0408_ VGND VGND VPWR VPWR _0622_ sky130_fd_sc_hd__nor2_1
XFILLER_0_49_155 VGND VGND VPWR VPWR sky130_fd_sc_hd__fill_1
XFILLER_0_37_317 VGND VGND VPWR VPWR sky130_fd_sc_hd__decap_6
XFILLER_0_20_206 VGND VGND VPWR VPWR sky130_fd_sc_hd__fill_2
XFILLER_0_18_29 VGND VGND VPWR VPWR sky130_fd_sc_hd__decap_8
XFILLER_0_50_27 VGND VGND VPWR VPWR sky130_fd_sc_hd__fill_1
XTAP_TAPCELL_ROW_28_297 VGND VPWR sky130_fd_sc_hd__tapvpwrvgnd_1
XFILLER_0_55_169 VGND VGND VPWR VPWR sky130_fd_sc_hd__decap_4
XFILLER_0_51_320 VGND VGND VPWR VPWR sky130_fd_sc_hd__decap_4
XTAP_TAPCELL_ROW_11_197 VGND VPWR sky130_fd_sc_hd__tapvpwrvgnd_1
XFILLER_0_59_69 VPWR VGND VPWR VGND sky130_ef_sc_hd__decap_12
X_1253_ u_posit_add.in2\[7\] u_posit_add.in2\[6\] u_posit_add.in2\[5\] u_posit_add.in2\[4\]
+ VGND VGND VPWR VPWR _0407_ sky130_fd_sc_hd__or4_1
X_1322_ _0445_ _0461_ VGND VGND VPWR VPWR _0476_ sky130_fd_sc_hd__xnor2_1
X_1184_ _0333_ _0335_ _0336_ _0337_ u_posit_add.in1\[15\] VGND VGND VPWR VPWR _0338_
+ sky130_fd_sc_hd__o41a_4
XTAP_TAPCELL_ROW_19_242 VGND VPWR sky130_fd_sc_hd__tapvpwrvgnd_1
XFILLER_0_24_50 VGND VGND VPWR VPWR sky130_fd_sc_hd__decap_6
XFILLER_0_54_191 VGND VGND VPWR VPWR sky130_fd_sc_hd__decap_4
XFILLER_0_34_309 VGND VGND VPWR VPWR sky130_fd_sc_hd__decap_4
XTAP_TAPCELL_ROW_2_143 VGND VPWR sky130_fd_sc_hd__tapvpwrvgnd_1
XFILLER_0_10_272 VGND VGND VPWR VPWR sky130_fd_sc_hd__decap_8
XTAP_TAPCELL_ROW_25_278 VGND VPWR sky130_fd_sc_hd__tapvpwrvgnd_1
XFILLER_0_52_106 VGND VGND VPWR VPWR sky130_fd_sc_hd__decap_8
XFILLER_0_37_169 VGND VGND VPWR VPWR sky130_fd_sc_hd__fill_1
XFILLER_0_25_309 VGND VGND VPWR VPWR sky130_fd_sc_hd__fill_2
XFILLER_0_0_29 VPWR VGND VPWR VGND sky130_ef_sc_hd__decap_12
XTAP_TAPCELL_ROW_16_223 VGND VPWR sky130_fd_sc_hd__tapvpwrvgnd_1
X_1940_ _1091_ _1093_ _1071_ VGND VGND VPWR VPWR _1094_ sky130_fd_sc_hd__mux2_1
X_1871_ _1023_ _1024_ VGND VGND VPWR VPWR _1025_ sky130_fd_sc_hd__or2_1
XFILLER_0_9_27 VPWR VGND VPWR VGND sky130_ef_sc_hd__decap_12
XFILLER_0_51_161 VGND VGND VPWR VPWR sky130_fd_sc_hd__decap_6
XFILLER_0_3_225 VGND VGND VPWR VPWR sky130_fd_sc_hd__decap_8
XPHY_EDGE_ROW_24_Left_84 VGND VGND VPWR VPWR sky130_fd_sc_hd__decap_3
XFILLER_0_24_342 VGND VGND VPWR VPWR sky130_fd_sc_hd__decap_8
XFILLER_0_36_6 VPWR VGND VPWR VGND sky130_ef_sc_hd__decap_12
X_1236_ _0384_ _0387_ _0389_ _0380_ VGND VGND VPWR VPWR _0390_ sky130_fd_sc_hd__a31o_2
X_2354_ clknet_2_0__leaf_clk _0001_ VGND VGND VPWR VPWR current_state\[0\] sky130_fd_sc_hd__dfxtp_1
X_2285_ _0292_ VGND VGND VPWR VPWR _0026_ sky130_fd_sc_hd__clkbuf_1
X_1305_ _0413_ _0458_ VGND VGND VPWR VPWR _0459_ sky130_fd_sc_hd__xnor2_1
X_1167_ net50 op net49 VGND VGND VPWR VPWR _0324_ sky130_fd_sc_hd__a21boi_1
XFILLER_0_51_81 VPWR VGND VPWR VGND sky130_ef_sc_hd__decap_12
XFILLER_0_34_139 VGND VGND VPWR VPWR sky130_fd_sc_hd__fill_1
XFILLER_0_27_191 VGND VGND VPWR VPWR sky130_fd_sc_hd__fill_1
XFILLER_0_19_169 VPWR VGND VPWR VGND sky130_ef_sc_hd__decap_12
XTAP_TAPCELL_ROW_22_259 VGND VPWR sky130_fd_sc_hd__tapvpwrvgnd_1
XFILLER_0_30_334 VGND VGND VPWR VPWR sky130_fd_sc_hd__decap_4
XFILLER_0_31_18 VPWR VGND VPWR VGND sky130_ef_sc_hd__decap_12
XTAP_TAPCELL_ROW_13_204 VGND VPWR sky130_fd_sc_hd__tapvpwrvgnd_1
XFILLER_0_21_334 VGND VGND VPWR VPWR sky130_fd_sc_hd__fill_2
X_2070_ _0113_ _0114_ _0045_ VGND VGND VPWR VPWR _0115_ sky130_fd_sc_hd__mux2_1
XFILLER_0_56_253 VPWR VGND VPWR VGND sky130_ef_sc_hd__decap_12
X_1923_ _1076_ VGND VGND VPWR VPWR _1077_ sky130_fd_sc_hd__inv_2
XTAP_TAPCELL_ROW_44_395 VGND VPWR sky130_fd_sc_hd__tapvpwrvgnd_1
X_1785_ _0936_ _0937_ VGND VGND VPWR VPWR _0939_ sky130_fd_sc_hd__nor2_1
X_1854_ _1006_ _1007_ VGND VGND VPWR VPWR _1008_ sky130_fd_sc_hd__xor2_1
XFILLER_0_31_109 VGND VGND VPWR VPWR sky130_fd_sc_hd__decap_3
XFILLER_0_12_301 VGND VGND VPWR VPWR sky130_fd_sc_hd__decap_6
XFILLER_0_12_345 VGND VGND VPWR VPWR sky130_fd_sc_hd__decap_8
XFILLER_0_24_183 VGND VGND VPWR VPWR sky130_fd_sc_hd__decap_3
X_2199_ _0233_ _0234_ VGND VGND VPWR VPWR _0235_ sky130_fd_sc_hd__xor2_1
X_2268_ _0283_ VGND VGND VPWR VPWR _0018_ sky130_fd_sc_hd__clkbuf_1
X_1219_ _0371_ _0362_ VGND VGND VPWR VPWR _0373_ sky130_fd_sc_hd__xnor2_1
X_2337_ clknet_2_1__leaf_clk _0025_ VGND VGND VPWR VPWR u_posit_add.in1\[2\] sky130_fd_sc_hd__dfxtp_2
XFILLER_0_47_231 VGND VGND VPWR VPWR sky130_fd_sc_hd__fill_2
XTAP_TAPCELL_ROW_35_340 VGND VPWR sky130_fd_sc_hd__tapvpwrvgnd_1
XFILLER_0_30_153 VGND VGND VPWR VPWR sky130_fd_sc_hd__decap_8
XFILLER_0_26_29 VPWR VGND VPWR VGND sky130_ef_sc_hd__decap_12
XFILLER_0_26_18 VGND VGND VPWR VPWR sky130_fd_sc_hd__decap_8
XTAP_TAPCELL_ROW_58_476 VGND VPWR sky130_fd_sc_hd__tapvpwrvgnd_1
Xcvxif_pau_75 VGND VGND VPWR VPWR cvxif_pau_75/HI result_data[16] sky130_fd_sc_hd__conb_1
Xcvxif_pau_86 VGND VGND VPWR VPWR cvxif_pau_86/HI result_data[27] sky130_fd_sc_hd__conb_1
XTAP_TAPCELL_ROW_41_376 VGND VPWR sky130_fd_sc_hd__tapvpwrvgnd_1
XFILLER_0_38_253 VGND VGND VPWR VPWR sky130_fd_sc_hd__fill_2
X_1570_ _0687_ _0703_ _0723_ VGND VGND VPWR VPWR _0724_ sky130_fd_sc_hd__a21oi_1
X_2122_ _0139_ _0165_ _0111_ VGND VGND VPWR VPWR _0166_ sky130_fd_sc_hd__mux2_1
X_2053_ _1070_ _0071_ _0097_ VGND VGND VPWR VPWR _0098_ sky130_fd_sc_hd__a21o_1
XTAP_TAPCELL_ROW_49_421 VGND VPWR sky130_fd_sc_hd__tapvpwrvgnd_1
XTAP_TAPCELL_ROW_32_321 VGND VPWR sky130_fd_sc_hd__tapvpwrvgnd_1
XFILLER_0_8_125 VGND VGND VPWR VPWR sky130_fd_sc_hd__decap_3
XFILLER_0_8_136 VGND VGND VPWR VPWR sky130_fd_sc_hd__decap_4
X_1837_ _0892_ _0956_ VGND VGND VPWR VPWR _0991_ sky130_fd_sc_hd__xor2_2
X_1906_ _0984_ VGND VGND VPWR VPWR _1060_ sky130_fd_sc_hd__inv_2
XFILLER_0_44_278 VPWR VGND VPWR VGND sky130_ef_sc_hd__decap_12
X_1768_ _0844_ _0676_ _0726_ VGND VGND VPWR VPWR _0922_ sky130_fd_sc_hd__and3_1
XFILLER_0_12_153 VGND VGND VPWR VPWR sky130_fd_sc_hd__decap_8
XFILLER_0_57_91 VGND VGND VPWR VPWR sky130_fd_sc_hd__decap_6
X_1699_ _0672_ _0750_ _0686_ _0675_ VGND VGND VPWR VPWR _0853_ sky130_fd_sc_hd__a31o_1
XFILLER_0_12_197 VGND VGND VPWR VPWR sky130_fd_sc_hd__decap_6
XTAP_TAPCELL_ROW_55_457 VGND VPWR sky130_fd_sc_hd__tapvpwrvgnd_1
XPHY_EDGE_ROW_11_Left_71 VGND VGND VPWR VPWR sky130_fd_sc_hd__decap_3
XFILLER_0_50_215 VGND VGND VPWR VPWR sky130_fd_sc_hd__decap_8
Xoutput64 net64 VGND VGND VPWR VPWR result_data[1] sky130_fd_sc_hd__buf_1
XFILLER_0_50_248 VGND VGND VPWR VPWR sky130_fd_sc_hd__fill_1
XTAP_TAPCELL_ROW_46_402 VGND VPWR sky130_fd_sc_hd__tapvpwrvgnd_1
X_1622_ _0727_ _0750_ _0775_ VGND VGND VPWR VPWR _0776_ sky130_fd_sc_hd__a21oi_1
X_1484_ _0455_ VGND VGND VPWR VPWR _0638_ sky130_fd_sc_hd__inv_2
X_1553_ _0468_ _0706_ _0479_ VGND VGND VPWR VPWR _0707_ sky130_fd_sc_hd__mux2_1
X_2105_ _0147_ _0149_ _0067_ _0119_ VGND VGND VPWR VPWR _0150_ sky130_fd_sc_hd__and4_1
X_2036_ _1071_ _0075_ VGND VGND VPWR VPWR _0081_ sky130_fd_sc_hd__nand2_1
XFILLER_0_49_337 VPWR VGND VPWR VGND sky130_ef_sc_hd__decap_12
XFILLER_0_49_315 VGND VGND VPWR VPWR sky130_fd_sc_hd__decap_8
XTAP_TAPCELL_ROW_52_438 VGND VPWR sky130_fd_sc_hd__tapvpwrvgnd_1
XFILLER_0_43_71 VGND VGND VPWR VPWR sky130_fd_sc_hd__decap_4
XFILLER_0_17_289 VGND VGND VPWR VPWR sky130_fd_sc_hd__decap_8
XFILLER_0_55_329 VGND VGND VPWR VPWR sky130_fd_sc_hd__decap_6
XFILLER_0_48_38 VGND VGND VPWR VPWR sky130_fd_sc_hd__decap_8
XFILLER_0_48_27 VGND VGND VPWR VPWR sky130_fd_sc_hd__fill_1
XFILLER_0_58_101 VGND VGND VPWR VPWR sky130_fd_sc_hd__fill_1
XFILLER_0_58_167 VGND VGND VPWR VPWR sky130_fd_sc_hd__fill_1
XFILLER_0_1_164 VGND VGND VPWR VPWR sky130_fd_sc_hd__decap_4
X_1605_ _0613_ _0689_ _0615_ VGND VGND VPWR VPWR _0759_ sky130_fd_sc_hd__a21oi_1
X_1536_ _0503_ _0399_ _0689_ VGND VGND VPWR VPWR _0690_ sky130_fd_sc_hd__mux2_1
XFILLER_0_38_82 VGND VGND VPWR VPWR sky130_fd_sc_hd__fill_2
X_1398_ _0468_ _0470_ VGND VGND VPWR VPWR _0552_ sky130_fd_sc_hd__nor2_1
X_1467_ _0618_ _0606_ _0607_ VGND VGND VPWR VPWR _0621_ sky130_fd_sc_hd__mux2_1
XFILLER_0_54_92 VGND VGND VPWR VPWR sky130_fd_sc_hd__fill_2
X_2019_ _1124_ _0063_ VGND VGND VPWR VPWR _0064_ sky130_fd_sc_hd__xnor2_4
XFILLER_0_37_329 VGND VGND VPWR VPWR sky130_fd_sc_hd__decap_6
XFILLER_0_13_281 VGND VGND VPWR VPWR sky130_fd_sc_hd__decap_3
XFILLER_0_34_29 VPWR VGND VPWR VGND sky130_ef_sc_hd__decap_12
XFILLER_0_34_18 VGND VGND VPWR VPWR sky130_fd_sc_hd__decap_8